10
Coordinates from ORCA-job C4H6_3d E -155.137333405887
  C      -0.923024     -0.792203     -1.709766
  C      -2.147796     -0.263440     -0.532546
  C       0.670071     -0.423873     -2.062566
  C      -1.375333     -0.040285      1.222967
  H       1.399705     -0.560967     -3.235442
  H       1.783470      0.076253     -1.506472
  H      -1.797317     -1.375633     -2.777139
  H      -3.139608     -1.192075     -0.846470
  H      -0.367498      0.542407      2.156214
  H      -1.984025      0.260360      2.817474
10
Coordinates from ORCA-job C4H6_3d E -155.233668079033
  C      -0.907325     -0.781925     -1.688997
  C      -2.095379     -0.262256     -0.539077
  C       0.611635     -0.422547     -2.013934
  C      -1.344548     -0.057005      1.163852
  H       1.306810     -0.563290     -3.156931
  H       1.668146      0.069738     -1.436999
  H      -1.736869     -1.348662     -2.734139
  H      -3.068862     -1.156460     -0.821218
  H      -0.347994      0.513090      2.043386
  H      -1.966970      0.239862      2.710311
10
Coordinates from ORCA-job C4H6_3d E -155.327509157936
  C      -0.889316     -0.771379     -1.667509
  C      -2.039215     -0.263100     -0.539128
  C       0.554864     -0.421864     -1.968137
  C      -1.316843     -0.074413      1.105008
  H       1.217011     -0.563458     -3.083827
  H       1.558777      0.061786     -1.373210
  H      -1.679012     -1.320526     -2.690113
  H      -2.998789     -1.119749     -0.790283
  H      -0.332674      0.481691      1.932157
  H      -1.956158      0.221557      2.601296
10
Coordinates from ORCA-job C4H6_3d E -155.416002641578
  C      -0.872985     -0.760798     -1.643593
  C      -1.983044     -0.265579     -0.530665
  C       0.505490     -0.420571     -1.926526
  C      -1.294131     -0.092639      1.046388
  H       1.134190     -0.561554     -3.016533
  H       1.461587      0.052805     -1.317904
  H      -1.627059     -1.290090     -2.640391
  H      -2.930458     -1.082290     -0.751560
  H      -0.323548      0.448314      1.819264
  H      -1.951397      0.202946      2.487775
10
Coordinates from ORCA-job C4H6_3d E -155.497023943809
  C      -0.860740     -0.750945     -1.617195
  C      -1.928759     -0.269825     -0.512933
  C       0.466848     -0.417919     -1.889945
  C      -1.277262     -0.111578      0.988502
  H       1.060780     -0.557292     -2.956255
  H       1.379721      0.043562     -1.270787
  H      -1.583086     -1.257935     -2.584916
  H      -2.865831     -1.044348     -0.703998
  H      -0.320788      0.413012      1.704252
  H      -1.952239      0.183813      2.369529
10
Coordinates from ORCA-job C4H6_3d E -155.568929487515
  C      -0.853620     -0.742469     -1.589375
  C      -1.877601     -0.276082     -0.486221
  C       0.440263     -0.413706     -1.859350
  C      -1.266487     -0.130585      0.933604
  H       0.998244     -0.550805     -2.904594
  H       1.314700      0.034593     -1.231375
  H      -1.547812     -1.224949     -2.525505
  H      -2.807012     -1.006633     -0.648255
  H      -0.323962      0.376691      1.589567
  H      -1.958069      0.164489      2.247757
10
Coordinates from ORCA-job C4H6_3d E -155.629272686245
  C      -0.850999     -0.735864     -1.562825
  C      -1.829565     -0.285038     -0.452713
  C       0.423792     -0.408444     -1.835405
  C      -1.260582     -0.148336      0.886796
  H       0.945839     -0.542871     -2.862616
  H       1.263832      0.026121     -1.197685
  H      -1.519375     -1.192213     -2.466226
  H      -2.755613     -0.969808     -0.587286
  H      -0.331154      0.341374      1.480425
  H      -1.967529      0.145624      2.123791
10
Coordinates from ORCA-job C4H6_3d E -155.675319400931
  C      -0.851959     -0.731795     -1.542867
  C      -1.785023     -0.298643     -0.418621
  C       0.413235     -0.403025     -1.818908
  C      -1.256488     -0.162145      0.859477
  H       0.902282     -0.535332     -2.830604
  H       1.219861      0.018819     -1.166332
  H      -1.494268     -1.162107     -2.414539
  H      -2.714198     -0.934399     -0.528264
  H      -0.337797      0.311216      1.387014
  H      -1.977001      0.127956      1.999898
10
Coordinates from ORCA-job C4H6_3d E -155.708348843629
  C      -0.856837     -0.730402     -1.534430
  C      -1.749453     -0.317734     -0.394898
  C       0.404736     -0.397846     -1.808295
  C      -1.251831     -0.168218      0.861844
  H       0.870603     -0.531160     -2.806532
  H       1.175753      0.015593     -1.133127
  H      -1.473009     -1.140824     -2.381988
  H      -2.689180     -0.902772     -0.484080
  H      -0.335463      0.292836      1.321641
  H      -1.976674      0.111072      1.886120
10
Coordinates from ORCA-job C4H6_3d E -155.731775074845
  C      -0.864937     -0.728571     -1.530397
  C      -1.725279     -0.338786     -0.380198
  C       0.396359     -0.391279     -1.793218
  C      -1.249209     -0.168508      0.873984
  H       0.852228     -0.530827     -2.781787
  H       1.128171      0.019607     -1.088746
  H      -1.461128     -1.131563     -2.371176
  H      -2.682991     -0.875339     -0.453042
  H      -0.316961      0.284989      1.265972
  H      -1.957607      0.090820      1.784861
10
Coordinates from ORCA-job C4H6_3d E -155.746193489076
  C      -0.874290     -0.724374     -1.531973
  C      -1.708268     -0.366072     -0.367560
  C       0.392283     -0.382537     -1.777192
  C      -1.248219     -0.165026      0.884350
  H       0.847899     -0.536987     -2.756756
  H       1.078587      0.033484     -1.038154
  H      -1.450833     -1.129080     -2.372832
  H      -2.691884     -0.845881     -0.426055
  H      -0.290996      0.274423      1.193700
  H      -1.935633      0.072594      1.718727
10
Coordinates from ORCA-job C4H6_3d E -155.754413895543
  C      -0.881205     -0.716281     -1.540870
  C      -1.695199     -0.398858     -0.359660
  C       0.390626     -0.373941     -1.766267
  C      -1.240901     -0.158148      0.886526
  H       0.853790     -0.551593     -2.734393
  H       1.033642      0.057000     -1.000451
  H      -1.439778     -1.131277     -2.381038
  H      -2.704140     -0.816994     -0.411093
  H      -0.264457      0.254420      1.120541
  H      -1.933732      0.066218      1.712958
10
Coordinates from ORCA-job C4H6_3d E -155.759804988751
  C      -0.888643     -0.707894     -1.542454
  C      -1.697718     -0.431140     -0.349176
  C       0.386742     -0.366339     -1.745883
  C      -1.237585     -0.146961      0.878734
  H       0.863300     -0.559001     -2.707154
  H       0.994440      0.084527     -0.962821
  H      -1.438138     -1.142503     -2.390378
  H      -2.729634     -0.793172     -0.407550
  H      -0.219255      0.235142      1.061748
  H      -1.914866      0.057885      1.691186
10
Coordinates from ORCA-job C4H6_3d E -155.763164738859
  C      -0.894030     -0.701756     -1.554012
  C      -1.700659     -0.462610     -0.344370
  C       0.391783     -0.361667     -1.750179
  C      -1.231493     -0.128732      0.886070
  H       0.878479     -0.572580     -2.702967
  H       0.984937      0.113370     -0.964642
  H      -1.428863     -1.148313     -2.383186
  H      -2.748196     -0.773088     -0.414871
  H      -0.211193      0.205083      1.035588
  H      -1.922120      0.060836      1.718823
10
Coordinates from ORCA-job C4H6_3d E -155.764910295883
  C      -0.891136     -0.696862     -1.543131
  C      -1.689332     -0.477243     -0.331376
  C       0.389216     -0.356319     -1.738317
  C      -1.233544     -0.107502      0.866542
  H       0.874909     -0.569178     -2.689378
  H       0.972030      0.136637     -0.960396
  H      -1.434988     -1.175572     -2.386873
  H      -2.747015     -0.744241     -0.415063
  H      -0.190487      0.167448      1.012143
  H      -1.931008      0.053375      1.712103
10
Coordinates from ORCA-job C4H6_3d E -155.765801064550
  C      -0.889712     -0.703817     -1.542849
  C      -1.697051     -0.488174     -0.329771
  C       0.383519     -0.351455     -1.746712
  C      -1.247085     -0.083817      0.868985
  H       0.876279     -0.570293     -2.699119
  H       0.969193      0.172229     -0.986502
  H      -1.413906     -1.200704     -2.353350
  H      -2.764640     -0.712727     -0.438085
  H      -0.173531      0.119525      1.051096
  H      -1.924422      0.049777      1.702559
10
Coordinates from ORCA-job C4H6_3d E -155.765842406398
  C      -0.887009     -0.711187     -1.540293
  C      -1.695588     -0.480115     -0.330665
  C       0.383277     -0.333674     -1.759557
  C      -1.243046     -0.093586      0.880846
  H       0.891885     -0.600124     -2.686671
  H       0.962109      0.225468     -1.019388
  H      -1.415810     -1.244538     -2.353349
  H      -2.769506     -0.652270     -0.454095
  H      -0.189421      0.099658      1.068569
  H      -1.918244      0.020910      1.720857
10
Coordinates from ORCA-job C4H6_3d E -155.765582603191
  C      -0.880531     -0.728687     -1.532885
  C      -1.684474     -0.483060     -0.328418
  C       0.385270     -0.327107     -1.763092
  C      -1.239415     -0.110247      0.882951
  H       0.880028     -0.557268     -2.706227
  H       0.942483      0.279021     -1.043977
  H      -1.396891     -1.291830     -2.331814
  H      -2.762234     -0.637096     -0.452180
  H      -0.183852     -0.050531      1.109494
  H      -1.941741      0.137349      1.692402
10
Coordinates from ORCA-job C4H6_3d E -155.764820650663
  C      -0.884357     -0.727571     -1.533383
  C      -1.684612     -0.456569     -0.335131
  C       0.380447     -0.339135     -1.759774
  C      -1.242910     -0.114990      0.866749
  H       0.883354     -0.582926     -2.704961
  H       0.937985      0.269116     -1.038962
  H      -1.381035     -1.291270     -2.300637
  H      -2.770990     -0.589432     -0.459929
  H      -0.164338      0.033152      1.074180
  H      -1.954900      0.030168      1.718103
10
Coordinates from ORCA-job C4H6_3d E -155.765966307656
  C      -0.885843     -0.714897     -1.543248
  C      -1.697375     -0.463666     -0.336341
  C       0.365294     -0.308643     -1.771505
  C      -1.240552     -0.117663      0.882880
  H       0.902435     -0.617267     -2.674625
  H       0.925078      0.296469     -1.050154
  H      -1.386345     -1.303935     -2.323401
  H      -2.777002     -0.593874     -0.469353
  H      -0.165948      0.004990      1.100340
  H      -1.921097      0.049031      1.711661
10
Coordinates from ORCA-job C4H6_3d E -155.765183302356
  C      -0.869122     -0.764445     -1.518460
  C      -1.688827     -0.470532     -0.332610
  C       0.394373     -0.352104     -1.750432
  C      -1.239860     -0.119570      0.890599
  H       0.869863     -0.531393     -2.713604
  H       0.916764      0.316221     -1.059467
  H      -1.381160     -1.345843     -2.310449
  H      -2.772370     -0.541621     -0.483618
  H      -0.183147     -0.049317      1.105482
  H      -1.927869      0.089148      1.698812
10
Coordinates from ORCA-job C4H6_3d E -155.766025253703
  C      -0.880217     -0.744265     -1.525466
  C      -1.687263     -0.462492     -0.334688
  C       0.371410     -0.298946     -1.774774
  C      -1.236803     -0.127840      0.878893
  H       0.897230     -0.578892     -2.689472
  H       0.912930      0.331940     -1.064590
  H      -1.375616     -1.348977     -2.293879
  H      -2.774693     -0.554910     -0.472425
  H      -0.172382     -0.089509      1.102892
  H      -1.935950      0.104434      1.699764
10
Coordinates from ORCA-job C4H6_3d E -155.765416948047
  C      -0.882168     -0.714693     -1.543387
  C      -1.696396     -0.437322     -0.342792
  C       0.364882     -0.318669     -1.767249
  C      -1.238932     -0.140476      0.884945
  H       0.917129     -0.653066     -2.655586
  H       0.880842      0.393833     -1.113825
  H      -1.366190     -1.340319     -2.299393
  H      -2.776182     -0.533445     -0.485583
  H      -0.159329     -0.068160      1.127905
  H      -1.925010      0.042860      1.721217
10
Coordinates from ORCA-job C4H6_3d E -155.766098795530
  C      -0.881025     -0.735857     -1.535428
  C      -1.697340     -0.455010     -0.338614
  C       0.364395     -0.306865     -1.769701
  C      -1.239158     -0.125561      0.882421
  H       0.889895     -0.571939     -2.693570
  H       0.911729      0.310835     -1.046803
  H      -1.361968     -1.366947     -2.293529
  H      -2.781071     -0.536641     -0.481349
  H      -0.165593     -0.050833      1.098222
  H      -1.921219      0.069363      1.704605
10
Coordinates from ORCA-job C4H6_3d E -155.765233280893
  C      -0.870021     -0.774631     -1.507434
  C      -1.683627     -0.466319     -0.332298
  C       0.379574     -0.302573     -1.770711
  C      -1.234342     -0.142160      0.884867
  H       0.909439     -0.590533     -2.674169
  H       0.879788      0.401208     -1.104507
  H      -1.380849     -1.353294     -2.289150
  H      -2.776217     -0.517370     -0.485138
  H      -0.175660     -0.146528      1.112962
  H      -1.929439      0.122744      1.691833
10
Coordinates from ORCA-job C4H6_3d E -155.766360038506
  C      -0.877613     -0.744414     -1.528120
  C      -1.692165     -0.449714     -0.339474
  C       0.367937     -0.305429     -1.770881
  C      -1.236851     -0.135335      0.883533
  H       0.901620     -0.592444     -2.681838
  H       0.890262      0.366211     -1.082622
  H      -1.364002     -1.370881     -2.287731
  H      -2.775967     -0.520704     -0.485476
  H      -0.167459     -0.103744      1.113300
  H      -1.927119      0.086998      1.705562
10
Coordinates from ORCA-job C4H6_3d E -155.766350076931
  C      -0.877689     -0.745153     -1.529121
  C      -1.693909     -0.453630     -0.338275
  C       0.366056     -0.305009     -1.769366
  C      -1.236007     -0.137020      0.882530
  H       0.901872     -0.592682     -2.677218
  H       0.888700      0.361820     -1.074390
  H      -1.362979     -1.368012     -2.289682
  H      -2.783052     -0.519506     -0.485797
  H      -0.164402     -0.093789      1.104828
  H      -1.919945      0.083524      1.702745
10
Coordinates from ORCA-job C4H6_3d E -155.766372442020
  C      -0.878233     -0.744789     -1.528485
  C      -1.693707     -0.449846     -0.339707
  C       0.366559     -0.303858     -1.770400
  C      -1.236443     -0.137402      0.882866
  H       0.902496     -0.592390     -2.678474
  H       0.886888      0.367644     -1.080244
  H      -1.361772     -1.375284     -2.285362
  H      -2.778874     -0.514386     -0.487147
  H      -0.165581     -0.103507      1.108933
  H      -1.922688      0.084363      1.704273
10
Coordinates from ORCA-job C4H6_3d E -155.766372213329
  C      -0.876970     -0.746423     -1.527701
  C      -1.693030     -0.449043     -0.339784
  C       0.366062     -0.303695     -1.770668
  C      -1.236127     -0.136828      0.883014
  H       0.902253     -0.591893     -2.679731
  H       0.885590      0.369244     -1.080667
  H      -1.361051     -1.376281     -2.285131
  H      -2.778767     -0.513388     -0.487509
  H      -0.166014     -0.107068      1.109982
  H      -1.923300      0.085918      1.704449
10
Coordinates from ORCA-job C4H6_3d E -155.766373411086
  C      -0.877758     -0.745566     -1.528263
  C      -1.693562     -0.449057     -0.339976
  C       0.366164     -0.303588     -1.770356
  C      -1.235996     -0.137588      0.882696
  H       0.902742     -0.592336     -2.678104
  H       0.885077      0.369701     -1.080474
  H      -1.360979     -1.376860     -2.284822
  H      -2.779327     -0.512909     -0.487493
  H      -0.165386     -0.106731      1.108760
  H      -1.922331      0.085479      1.704285
10
Coordinates from ORCA-job C4H6_3d E -155.766373365351
  C      -0.877723     -0.746095     -1.528037
  C      -1.693781     -0.449258     -0.339929
  C       0.365979     -0.303336     -1.770287
  C      -1.236058     -0.137816      0.882725
  H       0.903127     -0.592402     -2.677981
  H       0.884319      0.370129     -1.080317
  H      -1.360965     -1.377057     -2.284713
  H      -2.779104     -0.512105     -0.487663
  H      -0.165126     -0.107042      1.108383
  H      -1.922022      0.085524      1.704074
