!B3LYP DEF2-SVP Opt
* xyz 0 1   
C       -0.923023801     -0.792202589     -1.709766075
C       -2.147795801     -0.263440400     -0.532545922
C        0.670070539     -0.423872967     -2.062566270
C       -1.375333363     -0.040285263      1.222966903
H        1.399704615     -0.560967156     -3.235441748
H        1.783470115      0.076253313     -1.506472480
H       -1.797317136     -1.375632603     -2.777138626
H       -3.139607639     -1.192075345     -0.846470026
H       -0.367497777      0.542406640      2.156214248
H       -1.984024722      0.260360156      2.817473833
*