!B3LYP DEF2-SVP Opt
* xyz 0 1      
C       -0.373885602      0.000000000     -0.469939086
H       -0.364967366      0.000000000     -1.592845188
H       -2.362046135      0.000000000      0.349413023
H       -2.413873331      0.000000000      2.378738450
H        0.681942007      0.000000000     -0.419274600
H       -0.315638760      0.000000000      4.199011026
H        0.850930828      0.000000000      3.248755045
C       -1.409872919      0.000000000      0.573395571
C       -1.405457094      0.000000000      2.024693140
C       -0.233976910      0.000000000      3.158929484
*
