10
Coordinates from ORCA-job run E -155.633477335880
  C      -0.373886      0.000000     -0.469939
  H      -0.364967      0.000000     -1.592845
  H      -2.362046      0.000000      0.349413
  H      -2.413873      0.000000      2.378738
  H       0.681942      0.000000     -0.419275
  H      -0.315639      0.000000      4.199011
  H       0.850931      0.000000      3.248755
  C      -1.409873      0.000000      0.573396
  C      -1.405457      0.000000      2.024693
  C      -0.233977      0.000000      3.158929
10
Coordinates from ORCA-job run E -155.699486169355
  C      -0.368589      0.000000     -0.391649
  H      -0.377179      0.000000     -1.506692
  H      -2.384567     -0.000000      0.316472
  H      -2.383421      0.000000      2.422327
  H       0.702729      0.000000     -0.286650
  H      -0.351233      0.000000      4.131167
  H       0.836735     -0.000000      3.080549
  C      -1.386075     -0.000000      0.586719
  C      -1.376559     -0.000000      2.033541
  C      -0.258686     -0.000000      3.065092
10
Coordinates from ORCA-job run E -155.742486772007
  C      -0.360959     -0.000000     -0.315402
  H      -0.389676      0.000000     -1.422199
  H      -2.379079      0.000000      0.285933
  H      -2.347539     -0.000000      2.476935
  H       0.714296     -0.000000     -0.149786
  H      -0.386625     -0.000000      4.051486
  H       0.804480      0.000000      2.897976
  C      -1.364347     -0.000000      0.601225
  C      -1.346868      0.000000      2.053203
  C      -0.290528      0.000000      2.971506
10
Coordinates from ORCA-job run E -155.759050021463
  C      -0.340328     -0.000000     -0.245878
  H      -0.400195      0.000000     -1.342107
  H      -2.378984     -0.000000      0.229417
  H      -2.325329      0.000000      2.537804
  H       0.726641      0.000000      0.014578
  H      -0.403337     -0.000000      3.988644
  H       0.770304      0.000000      2.684162
  C      -1.356959     -0.000000      0.610259
  C      -1.331189      0.000000      2.077976
  C      -0.307469     -0.000000      2.896021
10
Coordinates from ORCA-job run E -155.764593133156
  C      -0.326357      0.000000     -0.214293
  H      -0.410452      0.000000     -1.303379
  H      -2.385336     -0.000000      0.165814
  H      -2.340047     -0.000000      2.552857
  H       0.722267     -0.000000      0.127380
  H      -0.381241      0.000000      3.986200
  H       0.771192     -0.000000      2.569174
  C      -1.368845     -0.000000      0.601432
  C      -1.347845     -0.000000      2.077807
  C      -0.280181      0.000000      2.887884
10
Coordinates from ORCA-job run E -155.765884725321
  C      -0.302636     -0.000000     -0.205476
  H      -0.413228     -0.000000     -1.293028
  H      -2.381686      0.000000      0.153636
  H      -2.342070     -0.000000      2.569363
  H       0.728176      0.000000      0.174099
  H      -0.379658      0.000000      3.975460
  H       0.749247     -0.000000      2.495480
  C      -1.373839      0.000000      0.611463
  C      -1.355263     -0.000000      2.087891
  C      -0.275890     -0.000000      2.881988
10
Coordinates from ORCA-job run E -155.766047051848
  C      -0.303723      0.000000     -0.205930
  H      -0.424513     -0.000000     -1.292677
  H      -2.370304     -0.000001      0.156094
  H      -2.340661      0.000000      2.562093
  H       0.724122      0.000001      0.171423
  H      -0.384135     -0.000001      3.975749
  H       0.748424     -0.000001      2.498582
  C      -1.368381     -0.000000      0.612296
  C      -1.352919      0.000001      2.086254
  C      -0.274755      0.000001      2.886992
10
Coordinates from ORCA-job run E -155.766072468198
  C      -0.303990     -0.000001     -0.209599
  H      -0.432159      0.000003     -1.295227
  H      -2.363493      0.000005      0.160995
  H      -2.340394     -0.000002      2.557684
  H       0.725140     -0.000005      0.162187
  H      -0.389013      0.000009      3.978462
  H       0.748201      0.000006      2.505304
  C      -1.364508      0.000000      0.613445
  C      -1.350734     -0.000005      2.086140
  C      -0.275895     -0.000010      2.891485
10
Coordinates from ORCA-job run E -155.766073870314
  C      -0.303762      0.000004     -0.210462
  H      -0.434097     -0.000024     -1.295843
  H      -2.362336     -0.000035      0.162016
  H      -2.340684      0.000017      2.556703
  H       0.726230      0.000036      0.159807
  H      -0.389948     -0.000063      3.979611
  H       0.747856     -0.000046      2.506337
  C      -1.363543     -0.000001      0.613810
  C      -1.350215      0.000037      2.086414
  C      -0.276346      0.000075      2.892483
10
Coordinates from ORCA-job run E -155.766074020392
  C      -0.303556     -0.000041     -0.210780
  H      -0.435081      0.000215     -1.296021
  H      -2.361984      0.000318      0.162379
  H      -2.341031     -0.000145      2.556032
  H       0.726942     -0.000325      0.158540
  H      -0.390133      0.000563      3.980324
  H       0.747636      0.000424      2.506735
  C      -1.363030      0.000004      0.614010
  C      -1.350046     -0.000332      2.086634
  C      -0.276563     -0.000681      2.893024
